/*--------------------------------*- C++ -*----------------------------------*\
| =========                 |                                                 |
| \\      /  F ield         | OpenFOAM: The Open Source CFD Toolbox           |
|  \\    /   O peration     | Version:  2.3.1                                 |
|   \\  /    A nd           | Web:      www.OpenFOAM.org                      |
|    \\/     M anipulation  |                                                 |
\*---------------------------------------------------------------------------*/
FoamFile
{
    version     2.0;
    format      binary;
    class       polyBoundaryMesh;
    location    "constant/polyMesh";
    object      boundary;
}
// * * * * * * * * * * * * * * * * * * * * * * * * * * * * * * * * * * * * * //

6
(
    right
    {
        type            patch;
        nFaces          300;
        startFace       378900;
    }
    up
    {
        type            patch;
        nFaces          1200;
        startFace       379200;
    }
    left
    {
        type            patch;
        nFaces          300;
        startFace       380400;
    }
    cylinder
    {
        type            patch;
        nFaces          400;
        startFace       380700;
    }
    z1
    {
        type            cyclic;
        inGroups        1(cyclic);
        nFaces          190000;
        startFace       381100;
        matchTolerance  0.0001;
        transform       unknown;
        neighbourPatch  z2;
    }
    z2
    {
        type            cyclic;
        inGroups        1(cyclic);
        nFaces          190000;
        startFace       571100;
        matchTolerance  0.0001;
        transform       unknown;
        neighbourPatch  z1;
    }
)

// ************************************************************************* //
