/*--------------------------------*- C++ -*----------------------------------*\
| =========                 |                                                 |
| \\      /  F ield         | OpenFOAM: The Open Source CFD Toolbox           |
|  \\    /   O peration     | Version:  2.3.1                                 |
|   \\  /    A nd           | Web:      www.OpenFOAM.org                      |
|    \\/     M anipulation  |                                                 |
\*---------------------------------------------------------------------------*/
FoamFile
{
    version     2.0;
    format      binary;
    class       polyBoundaryMesh;
    location    "constant/polyMesh";
    object      boundary;
}
// * * * * * * * * * * * * * * * * * * * * * * * * * * * * * * * * * * * * * //

6
(
    right
    {
        type            patch;
        nFaces          300;
        startFace       184300;
    }
    up
    {
        type            patch;
        nFaces          600;
        startFace       184600;
    }
    left
    {
        type            patch;
        nFaces          300;
        startFace       185200;
    }
    cylinder
    {
        type            patch;
        nFaces          200;
        startFace       185500;
    }
    z1
    {
        type            cyclic;
        inGroups        1(cyclic);
        nFaces          92500;
        startFace       185700;
        matchTolerance  0.0001;
        transform       unknown;
        neighbourPatch  z2;
    }
    z2
    {
        type            cyclic;
        inGroups        1(cyclic);
        nFaces          92500;
        startFace       278200;
        matchTolerance  0.0001;
        transform       unknown;
        neighbourPatch  z1;
    }
)

// ************************************************************************* //
