/*--------------------------------*- C++ -*----------------------------------*\
  =========                 |
  \\      /  F ield         | OpenFOAM: The Open Source CFD Toolbox
   \\    /   O peration     | Website:  https://openfoam.org
    \\  /    A nd           | Version:  6
     \\/     M anipulation  |
\*---------------------------------------------------------------------------*/
FoamFile
{
    version     2.0;
    format      binary;
    class       polyBoundaryMesh;
    location    "constant/polyMesh";
    object      boundary;
}
// * * * * * * * * * * * * * * * * * * * * * * * * * * * * * * * * * * * * * //

7
(
    down
    {
        type            patch;
        nFaces          300;
        startFace       92000;
    }
    right
    {
        type            patch;
        nFaces          150;
        startFace       92300;
    }
    up
    {
        type            patch;
        nFaces          300;
        startFace       92450;
    }
    left
    {
        type            patch;
        nFaces          150;
        startFace       92750;
    }
    cylinder
    {
        type            patch;
        nFaces          100;
        startFace       92900;
    }
    z1noc
    {
        type            patch;
        nFaces          46250;
        startFace       93000;
    }
    z2noc
    {
        type            patch;
        nFaces          46250;
        startFace       139250;
    }
)

// ************************************************************************* //
