/*--------------------------------*- C++ -*----------------------------------*\
| =========                 |                                                 |
| \\      /  F ield         | OpenFOAM: The Open Source CFD Toolbox           |
|  \\    /   O peration     | Version:  4.x                                   |
|   \\  /    A nd           | Web:      www.OpenFOAM.org                      |
|    \\/     M anipulation  |                                                 |
\*---------------------------------------------------------------------------*/
FoamFile
{
    version     2.0;
    format      binary;
    class       polyBoundaryMesh;
    location    "constant/polyMesh";
    object      boundary;
}
// * * * * * * * * * * * * * * * * * * * * * * * * * * * * * * * * * * * * * //

6
(
    right
    {
        type            patch;
        nFaces          600;
        startFace       368600;
    }
    up
    {
        type            patch;
        nFaces          1200;
        startFace       369200;
    }
    left
    {
        type            patch;
        nFaces          600;
        startFace       370400;
    }
    cylinder
    {
        type            patch;
        nFaces          400;
        startFace       371000;
    }
    z1
    {
        type            cyclic;
        inGroups        1(cyclic);
        nFaces          185000;
        startFace       371400;
        matchTolerance  0.0001;
        transform       unknown;
        neighbourPatch  z2;
    }
    z2
    {
        type            cyclic;
        inGroups        1(cyclic);
        nFaces          185000;
        startFace       556400;
        matchTolerance  0.0001;
        transform       unknown;
        neighbourPatch  z1;
    }
)

// ************************************************************************* //
