/*--------------------------------*- C++ -*----------------------------------*\
| =========                 |                                                 |
| \\      /  F ield         | OpenFOAM: The Open Source CFD Toolbox           |
|  \\    /   O peration     | Version:  2.4.0                                 |
|   \\  /    A nd           | Web:      www.OpenFOAM.org                      |
|    \\/     M anipulation  |                                                 |
\*---------------------------------------------------------------------------*/
FoamFile
{
    version     2.0;
    format      binary;
    class       polyBoundaryMesh;
    location    "constant/polyMesh";
    object      boundary;
}
// * * * * * * * * * * * * * * * * * * * * * * * * * * * * * * * * * * * * * //

8
(
    midplane1
    {
        type            cyclicAMI;
        inGroups        1(cyclicAMI);
        nFaces          119600;
        startFace       46305328;
        matchTolerance  1;
        transform       translational;
        neighbourPatch  midplane2;
        separationVector (0 -0.0575 0);
    }
    midplane2
    {
        type            cyclicAMI;
        inGroups        1(cyclicAMI);
        nFaces          119600;
        startFace       46424928;
        matchTolerance  1;
        transform       translational;
        neighbourPatch  midplane1;
        separationVector (0 0.0575 0);
    }
    z1plane
    {
        type            cyclic;
        inGroups        1(cyclic);
        nFaces          77672;
        startFace       46544528;
        matchTolerance  1e-06;
        transform       unknown;
        neighbourPatch  z2plane;
    }
    z2plane
    {
        type            cyclic;
        inGroups        1(cyclic);
        nFaces          77672;
        startFace       46622200;
        matchTolerance  1e-06;
        transform       unknown;
        neighbourPatch  z1plane;
    }
    inlet
    {
        type            patch;
        nFaces          20400;
        startFace       46699872;
    }
    outlet
    {
        type            patch;
        nFaces          5000;
        startFace       46720272;
    }
    pressure
    {
        type            wall;
        inGroups        
2
(
walls
wall
)
;
        nFaces          46000;
        startFace       46725272;
    }
    suction
    {
        type            wall;
        inGroups        
2
(
walls
wall
)
;
        nFaces          129800;
        startFace       46771272;
    }
)

// ************************************************************************* //
