/*--------------------------------*- C++ -*----------------------------------*\
| =========                 |                                                 |
| \\      /  F ield         | OpenFOAM: The Open Source CFD Toolbox           |
|  \\    /   O peration     | Version:  2.1.x                                 |
|   \\  /    A nd           | Web:      www.OpenFOAM.org                      |
|    \\/     M anipulation  |                                                 |
\*---------------------------------------------------------------------------*/
FoamFile
{
    version     2.0;
    format      ascii;
    class       dictionary;
    object      createPatchDict;
}

pointSync false;

patches
(
    {
        name z1plane;
        patchInfo
        {
            type cyclic;
            transform translational;
            separationVector (0 0 -0.01);
            matchTolerance 1e-6;
            neighbourPatch z2plane;
        }
        constructFrom patches;
        patches (tmp_z1plane);
    }
    {
        name z2plane;
        patchInfo
        {
            type cyclic;
            transform translational;
            separationVector (0 0 0.01);
            matchTolerance 1e-6;
            neighbourPatch z1plane;
        }
        constructFrom patches;
        patches (tmp_z2plane);
    }
);
