
/*--------------------------------*- C++ -*----------------------------------*| =========                 |                                                 |
| \      /  F ield         | OpenFOAM: The Open Source CFD Toolbox           |
|  \    /   O peration     | Version:  2.2.2                                 |
|   \  /    A nd           | Web:      www.OpenFOAM.org                      |
|    \/     M anipulation  |                                                 |
\*---------------------------------------------------------------------------*/
FoamFile
{
    version     2.0;
    format      ascii;
    class       dictionary;
    object      blockMeshDict;
}
// * * * * * * * * * * * * * * * * * * * * * * * * * * * * * * * * * * * * * //

convertToMeters 0.001;

vertices
(
(0.0 -57.49995 0.0)
(3.895 -49.97595 0.0)
(18.734 -52.79495 0.0)
(26.338 -68.48795 0.0)
(36.461 -109.80495 0.0)
(0.0 0.0 0.0)
(4.081 -4.895 0.0)
(28.935 -34.724 0.0)
(35.427 -51.465 0.0)
(36.461 -52.305 0.0)
(-10.0 -57.49995 0.0)
(0.895 -42.97595 0.0)
(23.734 -47.79495 0.0)
(33.338 -65.48795 0.0)
(42.1967643635 -117.996470443 0.0)
(-10.0 0.0 0.0)
(-2.919 -7.895 0.0)
(26.935 -39.724 0.0)
(32.427 -58.465 0.0)
(42.1967643635 -60.4965204429 0.0)
(-100.0 -57.49995 0.0)
(-100.0 -45.99996 0.0)
(-100.0 -11.49999 0.0)
(-100.0 0.0 0.0)
(93.8186436351 -191.720154429 0.0)
(93.8186436351 -180.220164429 0.0)
(93.8186436351 -145.720194429 0.0)
(93.8186436351 -134.220204429 0.0)
(0.0 -57.49995 -1.0)
(3.895 -49.97595 -1.0)
(18.734 -52.79495 -1.0)
(26.338 -68.48795 -1.0)
(36.461 -109.80495 -1.0)
(0.0 0.0 -1.0)
(4.081 -4.895 -1.0)
(28.935 -34.724 -1.0)
(35.427 -51.465 -1.0)
(36.461 -52.305 -1.0)
(-10.0 -57.49995 -1.0)
(0.895 -42.97595 -1.0)
(23.734 -47.79495 -1.0)
(33.338 -65.48795 -1.0)
(42.1967643635 -117.996470443 -1.0)
(-10.0 0.0 -1.0)
(-2.919 -7.895 -1.0)
(26.935 -39.724 -1.0)
(32.427 -58.465 -1.0)
(42.1967643635 -60.4965204429 -1.0)
(-100.0 -57.49995 -1.0)
(-100.0 -45.99996 -1.0)
(-100.0 -11.49999 -1.0)
(-100.0 0.0 -1.0)
(93.8186436351 -191.720154429 -1.0)
(93.8186436351 -180.220164429 -1.0)
(93.8186436351 -145.720194429 -1.0)
(93.8186436351 -134.220204429 -1.0)
);

blocks
(
hex (0 10 11 1 28 38 39 29) (25 25 1) simpleGrading (10.0 1.0 1.0)
hex (1 11 12 2 29 39 40 30) (25 25 1) simpleGrading (10.0 1.0 1.0)
hex (2 12 13 3 30 40 41 31) (25 25 1) simpleGrading (10.0 1.0 1.0)
hex (3 13 14 4 31 41 42 32) (25 25 1) simpleGrading (10.0 1.0 1.0)
hex (5 6 16 15 33 34 44 43) (25 25 1) simpleGrading (1.0 10.0 1.0)
hex (6 7 17 16 34 35 45 44) (25 25 1) simpleGrading (1.0 10.0 1.0)
hex (7 8 18 17 35 36 46 45) (25 25 1) simpleGrading (1.0 10.0 1.0)
hex (8 9 19 18 36 37 47 46) (25 25 1) simpleGrading (1.0 10.0 1.0)
hex (22 16 11 21 50 44 39 49) (25 25 1) simpleGrading (1.0 1.0 1.0)
hex (16 17 12 11 44 45 40 39) (25 25 1) simpleGrading (1.0 1.0 1.0)
hex (17 18 13 12 45 46 41 40) (25 25 1) simpleGrading (1.0 1.0 1.0)
hex (18 26 25 13 46 54 53 41) (25 25 1) simpleGrading (1.0 1.0 1.0)
hex (21 11 10 20 49 39 38 48) (25 25 1) simpleGrading (1.0 1.0 1.0)
hex (23 15 16 22 51 43 44 50) (25 25 1) simpleGrading (1.0 1.0 1.0)
hex (19 27 26 18 47 55 54 46) (25 25 1) simpleGrading (1.0 1.0 1.0)
hex (13 25 24 14 41 53 52 42) (25 25 1) simpleGrading (1.0 1.0 1.0)
);

edges
(
spline 33 34 (
(0.0 0.0 -1.0)
(0.185 -0.913 -1.0)
(0.927 -2.278 -1.0)
(1.669 -2.963 -1.0)
(2.782 -3.852 -1.0)
(4.081 -4.895 -1.0)
)
spline 3 2 (
(26.338 -68.48795 0.0)
(23.0 -60.16295 0.0)
(18.734 -52.79495 0.0)
)
spline 6 7 (
(4.081 -4.895 0.0)
(9.089 -9.023 0.0)
(13.64 -13.062 0.0)
(18.363 -18.038 0.0)
(22.444 -23.229 0.0)
(25.967 -28.85 0.0)
(28.935 -34.724 0.0)
)
spline 32 31 (
(36.461 -109.80495 -1.0)
(36.814 -109.58695 -1.0)
(36.726 -107.97595 -1.0)
(36.355 -106.44095 -1.0)
(35.241 -101.83695 -1.0)
(33.201 -93.39695 -1.0)
(31.161 -85.11495 -1.0)
(28.75 -76.21295 -1.0)
(26.338 -68.48795 -1.0)
)
spline 5 6 (
(0.0 0.0 0.0)
(0.185 -0.913 0.0)
(0.927 -2.278 0.0)
(1.669 -2.963 0.0)
(2.782 -3.852 0.0)
(4.081 -4.895 0.0)
)
spline 35 36 (
(28.935 -34.724 -1.0)
(31.347 -40.456 -1.0)
(33.757 -46.92 -1.0)
(34.87 -49.95 -1.0)
(35.427 -51.465 -1.0)
)
spline 29 28 (
(3.895 -49.97595 -1.0)
(2.411 -51.64095 -1.0)
(1.484 -52.95195 -1.0)
(0.742 -54.20195 -1.0)
(0.185 -55.94595 -1.0)
(0.0 -57.49995 -1.0)
)
spline 2 1 (
(18.734 -52.79495 0.0)
(11.871 -47.71695 0.0)
(3.895 -49.97595 0.0)
)
spline 8 9 (
(35.427 -51.465 0.0)
(36.075 -52.312 0.0)
(36.461 -52.305 0.0)
)
spline 36 37 (
(35.427 -51.465 -1.0)
(36.075 -52.312 -1.0)
(36.461 -52.305 -1.0)
)
spline 34 35 (
(4.081 -4.895 -1.0)
(9.089 -9.023 -1.0)
(13.64 -13.062 -1.0)
(18.363 -18.038 -1.0)
(22.444 -23.229 -1.0)
(25.967 -28.85 -1.0)
(28.935 -34.724 -1.0)
)
spline 30 29 (
(18.734 -52.79495 -1.0)
(11.871 -47.71695 -1.0)
(3.895 -49.97595 -1.0)
)
spline 4 3 (
(36.461 -109.80495 0.0)
(36.814 -109.58695 0.0)
(36.726 -107.97595 0.0)
(36.355 -106.44095 0.0)
(35.241 -101.83695 0.0)
(33.201 -93.39695 0.0)
(31.161 -85.11495 0.0)
(28.75 -76.21295 0.0)
(26.338 -68.48795 0.0)
)
spline 31 30 (
(26.338 -68.48795 -1.0)
(23.0 -60.16295 -1.0)
(18.734 -52.79495 -1.0)
)
spline 7 8 (
(28.935 -34.724 0.0)
(31.347 -40.456 0.0)
(33.757 -46.92 0.0)
(34.87 -49.95 0.0)
(35.427 -51.465 0.0)
)
spline 1 0 (
(3.895 -49.97595 0.0)
(2.411 -51.64095 0.0)
(1.484 -52.95195 0.0)
(0.742 -54.20195 0.0)
(0.185 -55.94595 0.0)
(0.0 -57.49995 0.0)
)
);

boundary
(
);
