/*--------------------------------*- C++ -*----------------------------------*\
| =========                 |                                                 |
| \\      /  F ield         | OpenFOAM: The Open Source CFD Toolbox           |
|  \\    /   O peration     | Version:  2.4.0                                 |
|   \\  /    A nd           | Web:      www.OpenFOAM.org                      |
|    \\/     M anipulation  |                                                 |
\*---------------------------------------------------------------------------*/
FoamFile
{
    version     2.0;
    format      binary;
    class       polyBoundaryMesh;
    location    "constant/polyMesh";
    object      boundary;
}
// * * * * * * * * * * * * * * * * * * * * * * * * * * * * * * * * * * * * * //

6
(
    patch0_half0
    {
        type            cyclic;
        inGroups        1(cyclic);
        nFaces          2500;
        startFace       367500;
        matchTolerance  0.0001;
        transform       unknown;
        neighbourPatch  patch0_half1;
    }
    patch0_half1
    {
        type            cyclic;
        inGroups        1(cyclic);
        nFaces          2500;
        startFace       370000;
        matchTolerance  0.0001;
        transform       unknown;
        neighbourPatch  patch0_half0;
    }
    patch1_half0
    {
        type            patch;
        nFaces          2500;
        startFace       372500;
    }
    patch1_half1
    {
        type            patch;
        nFaces          2500;
        startFace       375000;
    }
    patch2_half0
    {
        type            cyclic;
        inGroups        1(cyclic);
        nFaces          2500;
        startFace       377500;
        matchTolerance  0.0001;
        transform       unknown;
        neighbourPatch  patch2_half1;
    }
    patch2_half1
    {
        type            cyclic;
        inGroups        1(cyclic);
        nFaces          2500;
        startFace       380000;
        matchTolerance  0.0001;
        transform       unknown;
        neighbourPatch  patch2_half0;
    }
)

// ************************************************************************* //
