/*--------------------------------*- C++ -*----------------------------------*\
| =========                 |                                                 |
| \\      /  F ield         | OpenFOAM: The Open Source CFD Toolbox           |
|  \\    /   O peration     | Version:  2.4.0                                 |
|   \\  /    A nd           | Web:      www.OpenFOAM.org                      |
|    \\/     M anipulation  |                                                 |
\*---------------------------------------------------------------------------*/
FoamFile
{
    version     2.0;
    format      binary;
    class       volScalarField;
    location    "0";
    object      p;
}
// * * * * * * * * * * * * * * * * * * * * * * * * * * * * * * * * * * * * * //

dimensions      [ 1 -1 -2 0 0 0 0 ];

internalField   uniform 101325;

boundaryField
{
    right
    {
        type            nonReflectingOutletPressure;
        L               0.005;
        Mamax           0.25;
        ptar            uniform 101325;
        value           uniform 101325;
    }
    up
    {
        type            zeroGradient;
    }
    left
    {
        type            CBC_UPT;
        T0              uniform 300;
        U0              uniform ( 33 0 0 );
        p0              uniform 102325;
        value           uniform 102325;
    }
    cylinder
    {
        type            zeroGradient;
    }
    z1
    {
        type            cyclic;
    }
    z2
    {
        type            cyclic;
    }
}


// ************************************************************************* //
