/*--------------------------------*- C++ -*----------------------------------*\
| =========                 |                                                 |
| \\      /  F ield         | OpenFOAM: The Open Source CFD Toolbox           |
|  \\    /   O peration     | Version:  2.2.1                                 |
|   \\  /    A nd           | Web:      www.OpenFOAM.org                      |
|    \\/     M anipulation  |                                                 |
\*---------------------------------------------------------------------------*/
FoamFile
{
    version     2.0;
    format      ascii;
    class       dictionary;
    location    "system";
    object      controlDict;
}
// * * * * * * * * * * * * * * * * * * * * * * * * * * * * * * * * * * * * * //

application     rhoCentralFoam;

startFrom       latestTime;

startTime       1.0;

stopAt          endTime;

endTime         1.0001;

deltaT          1e-5;

//writeControl    adjustableRunTime;
//writeInterval   1e-5;
writeControl    timeStep;
writeInterval   10;

purgeWrite      0;

writeFormat     binary;

writePrecision  12;

writeCompression off;

timeFormat      general;

timePrecision   12;

runTimeModifiable true;

adjustTimeStep  yes;

maxCo           0.2;

maxDeltaT       1;

smoothing       0.05;


// ************************************************************************* //
