/*--------------------------------*- C++ -*----------------------------------*\
| =========                 |                                                 |
| \\      /  F ield         | OpenFOAM: The Open Source CFD Toolbox           |
|  \\    /   O peration     | Version:  2.2.1                                 |
|   \\  /    A nd           | Web:      www.OpenFOAM.org                      |
|    \\/     M anipulation  |                                                 |
\*---------------------------------------------------------------------------*/
FoamFile
{
    version     2.0;
    format      ascii;
    class       dictionary;
    location    "system";
    object      fvSchemes;
}
// * * * * * * * * * * * * * * * * * * * * * * * * * * * * * * * * * * * * * //

fluxScheme      Tadmor;//Kurganov;

ddtSchemes
{
    default         localEuler rDeltaT;
}

gradSchemes
{
    default         Gauss linear;
}

divSchemes
{
    default         none;
    div(U)          Gauss linear;
    div(tauMC)      Gauss linear;
    div(phi,epsilon)    bounded Gauss upwind;
    div(phi,k)          bounded Gauss upwind;
    div(phi,omega)          bounded Gauss upwind;
}

laplacianSchemes
{
    default         Gauss linear corrected;
}

interpolationSchemes
{
    default         linear;
    reconstruct(rho) vanLeer;
    reconstruct(U)  vanLeerV;
    reconstruct(T)  vanLeer;
}

snGradSchemes
{
    default         uncorrected;
}


// ************************************************************************* //
